                                   MODFLOW 6
                U.S. GEOLOGICAL SURVEY MODULAR HYDROLOGIC MODEL
                          GROUNDWATER FLOW MODEL (GWF)
                            VERSION 6.0.4 03/13/2019

   MODFLOW 6 compiled Mar 13 2019 12:37:09 with IFORT compiler (ver. 19.0.0)

This software has been approved for release by the U.S. Geological 
Survey (USGS). Although the software has been subjected to rigorous 
review, the USGS reserves the right to update the software as needed 
pursuant to further analysis and review. No warranty, expressed or 
implied, is made by the USGS or the U.S. Government as to the 
functionality of the software and related material nor shall the 
fact of release constitute any such warranty. Furthermore, the 
software is released on condition that neither the USGS nor the U.S. 
Government shall be held liable for any damages resulting from its 
authorized or unauthorized use. Also refer to the USGS Water 
Resources Software User Rights Notice for complete use, copyright, 
and distribution information.


MODFLOW was compiled using uniform precision.
Precision of REAL variables: 15


 OPENED mf6_webinar.disu
 FILE TYPE:DISU6                  UNIT 1005   STATUS:OLD                 
 FORMAT:FORMATTED              ACCESS:SEQUENTIAL          
 ACTION:READ                


 OPENED mf6_webinar.riv
 FILE TYPE:RIV6                   UNIT 1006   STATUS:OLD                 
 FORMAT:FORMATTED              ACCESS:SEQUENTIAL          
 ACTION:READ                


 OPENED mf6_webinar.wel
 FILE TYPE:WEL6                   UNIT 1007   STATUS:OLD                 
 FORMAT:FORMATTED              ACCESS:SEQUENTIAL          
 ACTION:READ                


 OPENED mf6_webinar.npf
 FILE TYPE:NPF6                   UNIT 1008   STATUS:OLD                 
 FORMAT:FORMATTED              ACCESS:SEQUENTIAL          
 ACTION:READ                


 OPENED mf6_webinar.ic
 FILE TYPE:IC6                    UNIT 1009   STATUS:OLD                 
 FORMAT:FORMATTED              ACCESS:SEQUENTIAL          
 ACTION:READ                


 OPENED mf6_webinar.oc
 FILE TYPE:OC6                    UNIT 1010   STATUS:OLD                 
 FORMAT:FORMATTED              ACCESS:SEQUENTIAL          
 ACTION:READ                

 NAMEFILE OPTIONS:
    FLOWS WILL BE SAVED TO BUDGET FILE SPECIFIED IN OUTPUT CONTROL
    NEWTON-RAPHSON method enabled for the model.
    NEWTON-RAPHSON UNDER-RELAXATION based on the bottom elevation of the model will be applied to the model.

 DISU -- UNSTRUCTURED GRID DISCRETIZATION PACKAGE, VERSION 2 : 3/27/2014 - INPUT READ FROM UNIT 1005


 PROCESSING DISCRETIZATION OPTIONS
    MODEL LENGTH UNIT IS METERS
 END OF DISCRETIZATION OPTIONS
 PROCESSING DISCRETIZATION DIMENSIONS
    NODES = 358487
    NJA   = 5120539
   NVERT = 47892
   VERTICES AND CELL2D BLOCKS WILL BE READ BELOW. 
 END OF DISCRETIZATION OPTIONS
 PROCESSING GRIDDATA
 END PROCESSING GRIDDATA
 PROCESSING CONNECTIONDATA
 END PROCESSING CONNECTIONDATA

 PROCESSING VERTICES
   SUCCESSFULLY READ 47892 (X,Y) COORDINATES
   MINIMUM X COORDINATE =     1062215.75000000    
   MAXIMUM X COORDINATE =     1074654.19000000    
   MINIMUM Y COORDINATE =     1063703.04000000    
   MAXIMUM Y COORDINATE =     1075106.08000000    
 END PROCESSING VERTICES

 PROCESSING CELL2D
   SUCCESSFULLY READ 358487 CELL2D INFORMATION ENTRIES
   MINIMUM X CELL CENTER =     1062249.32000000    
   MAXIMUM X CELL CENTER =     1074650.52000000    
   MINIMUM Y CELL CENTER =     1063710.41000000    
   MAXIMUM Y CELL CENTER =     1075099.40000000    
   MAXIMUM NUMBER OF CELL2D VERTICES IS 11 FOR CELL 53656
 END PROCESSING VERTICES

 NPF -- NODE PROPERTY FLOW PACKAGE, VERSION 1, 3/30/2015 INPUT READ FROM UNIT 1008


 PROCESSING NPF OPTIONS
 END OF NPF OPTIONS

 WEL   -- WEL PACKAGE, VERSION 8, 2/22/2014 INPUT READ FROM UNIT 1007

 PROCESSING WEL OPTIONS
    WEL BOUNDARIES HAVE NAMES IN LAST COLUMN.
 END OF WEL OPTIONS

 PROCESSING WEL DIMENSIONS
    MAXBOUND =      90
 END OF WEL DIMENSIONS

 RIV   -- RIV PACKAGE, VERSION 8, 2/22/2014 INPUT READ FROM UNIT 1006

 PROCESSING RIV OPTIONS
    RIV BOUNDARIES HAVE NAMES IN LAST COLUMN.
 END OF RIV OPTIONS

 PROCESSING RIV DIMENSIONS
    MAXBOUND =    1576
 END OF RIV DIMENSIONS

 IC -- INITIAL CONDITIONS PACKAGE, VERSION 8, 3/28/2015 INPUT READ FROM UNIT 1009
 PROCESSING GRIDDATA
 END PROCESSING GRIDDATA
 PROCESSING GRIDDATA
 END PROCESSING GRIDDATA
    BINARY GRID INFORMATION WILL BE WRITTEN TO:
      UNIT NUMBER: 1012
      FILE NAME: D:\CompartidaVB\Modflow\Webinar_2019\modflow6\mf6_webinar\mf6_webinar.disu.grb

 OPENED D:\CompartidaVB\Modflow\Webinar_2019\modflow6\mf6_webinar\mf6_webinar.disu.grb
 FILE TYPE:DATA(BINARY)   UNIT 1012   STATUS:REPLACE             
 FORMAT:UNFORMATTED            ACCESS:STREAM              
 ACTION:READWRITE           

      THE LAST TIME STEP WILL BE PRINTED
      THE LAST TIME STEP WILL BE PRINTED
 PROCESSING OC OPTIONS
    BUDGET INFORMATION WILL BE WRITTEN TO:
      UNIT NUMBER: 1013
      FILE NAME: mf6_webinar.cbc

 OPENED mf6_webinar.cbc
 FILE TYPE:DATA(BINARY)   UNIT 1013   STATUS:REPLACE             
 FORMAT:UNFORMATTED            ACCESS:STREAM              
 ACTION:READWRITE           

    HEAD INFORMATION WILL BE WRITTEN TO:
      UNIT NUMBER: 1014
      FILE NAME: mf6_webinar.hds

 OPENED mf6_webinar.hds
 FILE TYPE:DATA(BINARY)   UNIT 1014   STATUS:REPLACE             
 FORMAT:UNFORMATTED            ACCESS:STREAM              
 ACTION:READWRITE           

 END OF OC OPTIONS

 BEGIN READING OUTPUT CONTROL FOR STRESS PERIOD 1
      ALL TIME STEPS WILL BE SAVED
      ALL TIME STEPS WILL BE SAVED

 END READING OUTPUT CONTROL FOR STRESS PERIOD 1

 INNER ITERATION SUMMARY
 --------------------------------------------------------------------------------------------------------------------------------
     TOTAL      OUTER     INNER                    MAXIMUM CHANGE        MAXIMUM                  MAXIMUM RESIDUAL        MAXIMUM
 ITERATION  ITERATION ITERATION                    MODEL-(CELLID)         CHANGE                    MODEL-(CELLID)       RESIDUAL
 --------------------------------------------------------------------------------------------------------------------------------
          1         1         1                       1_GWF-(363)  -159.8752                         1_GWF-(57355)   4627.316    
          2         1         2                      1_GWF-(1836)   168.1970                        1_GWF-(323161)   2594.055    
          3         1         3                      1_GWF-(1976)   121.6911                        1_GWF-(323161)   2287.584    
          4         1         4                      1_GWF-(1648)   72.99293                        1_GWF-(323161)   1686.103    
          5         1         5                      1_GWF-(2628)   47.27816                        1_GWF-(323161)   1194.163    
          6         1         6                      1_GWF-(2743)   38.06092                        1_GWF-(302552)   804.3004    
          7         1         7                      1_GWF-(2677)   38.72618                        1_GWF-(302552)   588.5719    
          8         1         8                      1_GWF-(2645)   25.62916                        1_GWF-(323161)   480.4526    
          9         1         9                      1_GWF-(2677)   25.57948                        1_GWF-(275328)   520.2690    
         10         1        10                      1_GWF-(1396)   12.66851                        1_GWF-(323161)   404.5578    
         11         1        11                      1_GWF-(2677)   23.05454                        1_GWF-(323161)   387.7730    
         12         1        12                        1_GWF-(13) -0.6625529                        1_GWF-(323161)   356.7774    
         13         1        13                      1_GWF-(7820)  -1422.270                        1_GWF-(328951)   17831.45    
         14         1        14                    1_GWF-(358487)  -1419.683                        1_GWF-(323161)   399.9745    
         15         1        15                      1_GWF-(3001)  -68.05430                        1_GWF-(323161)   763.0661    
         16         1        16                    1_GWF-(165864)   852.7576                        1_GWF-(323161)  -1443.884    
         17         1        17                    1_GWF-(355820)  -448.6010                        1_GWF-(325487)   447.7837    
         18         1        18                      1_GWF-(7819)  -140.0764                        1_GWF-(338087)   902.6639    
         19         1        19                    1_GWF-(358487)  -142.9914                        1_GWF-(338087)   73.23832    
         20         1        20                      1_GWF-(2579)  -3.693546                        1_GWF-(335338)   32.37945    
         21         1        21                      1_GWF-(2579)  -1.953366                        1_GWF-(260641)  -29.42862    
         22         1        22                      1_GWF-(2514)  -1.482634                        1_GWF-(260641)  -30.97611    
         23         1        23                      1_GWF-(2579)  -1.395644                        1_GWF-(260641)  -31.68146    
         24         1        24                       1_GWF-(564) -0.3127507                        1_GWF-(260641)  -30.65896    
         25         1        25                      1_GWF-(2435)  -1.118648                        1_GWF-(260641)  -29.56835    
         26         1        26                      1_GWF-(2569)  0.9784249                        1_GWF-(260641)  -27.98733    
         27         1        27                      1_GWF-(2581)   1.034431                        1_GWF-(270185)   28.80711    
         28         1        28                      1_GWF-(2581)   1.026536                        1_GWF-(323161)   24.10839    
         29         1        29                      1_GWF-(2615)   1.465629                        1_GWF-(323161)   21.54048    
         30         1        30                       1_GWF-(728)  0.3645134                        1_GWF-(323161)   20.63257    
         31         1        31                      1_GWF-(2615)   1.063765                        1_GWF-(323161)   17.83294    
         32         1        32                      1_GWF-(2679)   1.095130                        1_GWF-(323161)   14.72433    
         33         1        33                      1_GWF-(3003)   1.534016                        1_GWF-(323161)   11.13378    
         34         1        34                      1_GWF-(7820)  -2.301220                        1_GWF-(323161)   6.180595    
         35         1        35                        1_GWF-(11)  0.2741359E-02                    1_GWF-(323161)   6.274815    
         36         1        36                     1_GWF-(24652)  -1.470124                        1_GWF-(270185)  -4.924722    
         37         1        37                      1_GWF-(2581)  0.3223854                        1_GWF-(335338)  -3.879735    
         38         1        38                      1_GWF-(2581) -0.1759567                        1_GWF-(270185)  -11.49208    
         39         1        39                      1_GWF-(1442) -0.4679354E-01                    1_GWF-(260641)   3.364167    
         40         1        40                      1_GWF-(1396)  0.3764146E-01                    1_GWF-(260641)   3.393976    
         41         1        41                       1_GWF-(402)  0.3323667E-01                    1_GWF-(270185)  -3.624956    
         42         1        42                       1_GWF-(756)  0.2912077E-01                    1_GWF-(260641)   3.135538    
         43         1        43                      1_GWF-(2581) -0.1884224                        1_GWF-(270185)  -6.653040    
         44         1        44                       1_GWF-(316)  0.1478352E-01                    1_GWF-(260641)   2.492282    
         45         1        45                      1_GWF-(4534) -0.6638771                        1_GWF-(270185)  -6.830352    
         46         1        46                       1_GWF-(281) -0.2753422E-02                    1_GWF-(260641)   1.202775    
         47         1        47                      1_GWF-(2581) -0.5528869E-01                    1_GWF-(260641)   1.017253    
         48         1        48                        1_GWF-(13) -0.2803854E-03                    1_GWF-(260641)   1.031502    
         49         1        49                      1_GWF-(2670) -0.1097744                        1_GWF-(324888)  -6.098166    
         50         1        50                       1_GWF-(459)  0.6087456E-02                    1_GWF-(260641)  0.6976543    
         51         1        51                         1_GWF-(1)  0.4451688E-06                    1_GWF-(260641)  0.6932022    
         52         1        52                        1_GWF-(13)  0.4165284E-03                    1_GWF-(324888) -0.7508762    
         53         1        53                       1_GWF-(443)  0.1503682E-02                    1_GWF-(260641)  0.6651074    
         54         1        54                        1_GWF-(65)  0.9496563E-03                    1_GWF-(293698) -0.6334501    
         55         1        55                      1_GWF-(2581) -0.3161805E-01                    1_GWF-(260641)  0.5207356    
         56         1        56                      1_GWF-(2679) -0.5876433E-01                    1_GWF-(260641)  0.3568970    
         57         1        57                    1_GWF-(216858) -0.1152639                        1_GWF-(260641)  0.1652876    
         58         1        58                       1_GWF-(126) -0.7537047E-03                    1_GWF-(324888)  0.2861733    
         59         1        59                     1_GWF-(86399) -0.4585386E-01                    1_GWF-(260641)  0.7856265E-01
         60         1        60                      1_GWF-(2679) -0.8658977E-02                    1_GWF-(260641)  0.5421873E-01
         61         1        61                      1_GWF-(2994) -0.1057057E-01                    1_GWF-(260641)  0.3394785E-01
         62         1        62                    1_GWF-(350133) -0.7956753E-02                    1_GWF-(252248)  0.7919913E-02
         63         1        63                       1_GWF-(108)  0.2180542E-03                    1_GWF-(324888)  0.8095948E-02
         64         2         1                    1_GWF-(357644)   1219.783                        1_GWF-(321895)  -1200.846    
         65         2         2                    1_GWF-(355622)   2035.329                        1_GWF-(321916)  -650.5320    
         66         2         3                    1_GWF-(339945)   1442.796                        1_GWF-(321916)   327.7631    
         67         2         4                    1_GWF-(355622)   934.1876                        1_GWF-(321895)  -613.8788    
         68         2         5                    1_GWF-(339945)   3005.293                        1_GWF-(321916)   494.4248    
         69         2         6                    1_GWF-(339945)  -2174.422                        1_GWF-(321916)  -839.6552    
         70         2         7                    1_GWF-(356682)  -668.1347                        1_GWF-(321916)  -658.8345    
         71         2         8                    1_GWF-(356682)  -568.1088                        1_GWF-(321916)  -316.7598    
         72         2         9                    1_GWF-(356682)  -545.9140                        1_GWF-(321916)  -410.5583    
         73         2        10                    1_GWF-(356682)  -684.5565                        1_GWF-(222067)  -480.4460    
         74         2        11                    1_GWF-(356682)  -719.6733                        1_GWF-(222067)  -303.6563    
         75         2        12                    1_GWF-(356682)  -570.7875                        1_GWF-(321916)  -431.7281    
         76         2        13                    1_GWF-(356682)  -552.2447                        1_GWF-(339886)  -218.4253    
         77         2        14                    1_GWF-(356995)  -176.0778                        1_GWF-(334889)   175.9434    
         78         2        15                    1_GWF-(340509)  -650.6089                        1_GWF-(339886)  -353.7368    
         79         2        16                    1_GWF-(356682)  -252.5132                        1_GWF-(276284)  -143.8078    
         80         2        17                    1_GWF-(356996)  -193.0351                        1_GWF-(276284)  -137.5149    
         81         2        18                    1_GWF-(340512)  -513.0301                        1_GWF-(339886)  -429.1772    
         82         2        19                    1_GWF-(340512)   592.7115                        1_GWF-(321895)  -422.7717    
         83         2        20                    1_GWF-(321895)  -1022.113                        1_GWF-(321895)  -632.4383    
         84         2        21                    1_GWF-(356996)  -132.4394                        1_GWF-(321916)  -108.8150    
         85         2        22                    1_GWF-(339886)  -77.05726                        1_GWF-(276284)  -51.29038    
         86         2        23                    1_GWF-(356997)  -67.02712                        1_GWF-(321916)   50.41260    
         87         2        24                    1_GWF-(340511)   140.1825                        1_GWF-(321916)  -118.0353    
         88         2        25                    1_GWF-(356996)  -64.94904                        1_GWF-(321916)  -46.40966    
         89         2        26                    1_GWF-(356996)  -30.90974                        1_GWF-(222590)  -27.80282    
         90         2        27                    1_GWF-(356996)  -35.86604                        1_GWF-(222590)  -25.19275    
         91         2        28                    1_GWF-(340509)  -108.0110                        1_GWF-(321895)  -68.37727    
         92         2        29                    1_GWF-(358487)   69.00385                        1_GWF-(321916)   41.22617    
         93         2        30                    1_GWF-(356996)   108.7335                        1_GWF-(321916)  -104.6638    
         94         2        31                    1_GWF-(358116)   13.21839                        1_GWF-(254428)   13.20658    
         95         2        32                    1_GWF-(356682)   17.66580                        1_GWF-(321895)  -14.52977    
         96         2        33                    1_GWF-(358182)   9.819361                        1_GWF-(254428)   9.595044    
         97         2        34                    1_GWF-(340512)   17.35155                        1_GWF-(339886)   12.46459    
         98         2        35                    1_GWF-(358127)   9.371275                        1_GWF-(321895)   9.297994    
         99         2        36                    1_GWF-(340511)   11.69694                        1_GWF-(321895)  -10.09043    
        100         2        37                    1_GWF-(356683)   39.44607                        1_GWF-(321895)   37.33152    
        101         2        38                    1_GWF-(340513)   12.22741                        1_GWF-(321895)  -8.383913    
        102         2        39                    1_GWF-(356996)   7.127517                        1_GWF-(254428)   6.957103    
        103         2        40                    1_GWF-(356683)   15.86780                        1_GWF-(222067)  -11.86225    
        104         2        41                    1_GWF-(356997)   7.201478                        1_GWF-(254428)   5.798723    
        105         2        42                    1_GWF-(356683)   11.07461                        1_GWF-(321895)  -6.859218    
        106         2        43                    1_GWF-(356997)   7.538620                        1_GWF-(254428)   4.958443    
        107         2        44                    1_GWF-(356683)   39.07804                        1_GWF-(321895)  -28.81264    
        108         2        45                    1_GWF-(356683)   14.94733                        1_GWF-(321895)  -10.37096    
        109         2        46                    1_GWF-(358116)   8.534848                        1_GWF-(341164)   7.761648    
        110         2        47                    1_GWF-(358487)   6.655983                        1_GWF-(120849)   3.897752    
        111         2        48                    1_GWF-(357044)   12.06428                        1_GWF-(309136)   11.76286    
        112         2        49                    1_GWF-(340509)   24.46746                        1_GWF-(321895)  -13.13367    
        113         2        50                    1_GWF-(357526)   4.763574                        1_GWF-(341164)   4.761601    
        114         2        51                    1_GWF-(357028)   6.161633                        1_GWF-(341164)   4.899221    
        115         2        52                    1_GWF-(356996)   6.310093                        1_GWF-(341164)   4.898443    
        116         2        53                    1_GWF-(356997)   8.533020                        1_GWF-(341164)   4.910772    
        117         2        54                    1_GWF-(357044)   4.925289                        1_GWF-(341164)   4.855462    
        118         2        55                    1_GWF-(355605)   20.87178                        1_GWF-(332429)  -16.70272    
        119         2        56                    1_GWF-(356997)   5.523876                        1_GWF-(341164)   4.289972    
        120         2        57                    1_GWF-(356997)   4.569588                        1_GWF-(341164)   3.943864    
        121         2        58                    1_GWF-(356996)  -27.89582                        1_GWF-(321895)  -21.32863    
        122         2        59                    1_GWF-(358487)   4.528265                        1_GWF-(341164)   3.747784    
        123         2        60                    1_GWF-(356996)   4.528001                        1_GWF-(332429)  -4.023622    
        124         2        61                    1_GWF-(357028)   3.978582                        1_GWF-(276770)   3.519276    
        125         2        62                    1_GWF-(356997)   3.639810                        1_GWF-(341164)   3.250109    
        126         2        63                    1_GWF-(356682)  -13.35783                        1_GWF-(321895)  -8.503052    
        127         2        64                    1_GWF-(356682)   3.472034                        1_GWF-(321895)  -3.378400    
        128         2        65                    1_GWF-(356997)   3.711280                        1_GWF-(341164)   3.098677    
        129         2        66                    1_GWF-(339945)   36.96178                        1_GWF-(341164)   3.096294    
        130         2        67                    1_GWF-(357028)   2.974483                        1_GWF-(341164)   2.839206    
        131         2        68                    1_GWF-(340509)  -3.572025                        1_GWF-(341164)   2.784012    
        132         2        69                    1_GWF-(357028)   2.703858                        1_GWF-(254428)  -2.617279    
        133         2        70                    1_GWF-(340509)  -5.096653                        1_GWF-(254428)  -2.591071    
        134         2        71                    1_GWF-(356997)   3.977956                        1_GWF-(254428)  -2.495544    
        135         2        72                    1_GWF-(332429)   13.50214                        1_GWF-(254428)  -2.493912    
        136         2        73                    1_GWF-(356997)   3.077503                        1_GWF-(254428)  -2.404463    
        137         2        74                    1_GWF-(356997)   7.379812                        1_GWF-(341086)   4.325140    
        138         2        75                    1_GWF-(332429)   4.548305                        1_GWF-(254428)  -2.137774    
        139         2        76                    1_GWF-(356997)   12.69558                        1_GWF-(321916)   12.57166    
        140         2        77                    1_GWF-(356996)   1.871968                        1_GWF-(260641)   1.768661    
        141         2        78                    1_GWF-(321916)  -2.994108                        1_GWF-(260641)   1.745107    
        142         2        79                       1_GWF-(564)  0.7286932E-01                    1_GWF-(260641)   1.728038    
        143         2        80                    1_GWF-(356996)   9.926890                        1_GWF-(321916)   8.544043    
        144         2        81                    1_GWF-(340510)   76.36498                        1_GWF-(341086)  -67.44359    
        145         2        82                    1_GWF-(357028)   1.691988                        1_GWF-(260641)   1.241532    
        146         2        83                    1_GWF-(340509)  -1.705626                        1_GWF-(260641)   1.236903    
        147         2        84                    1_GWF-(339886)  -2.087736                        1_GWF-(260641)   1.239189    
        148         2        85                    1_GWF-(339886)   1.569191                        1_GWF-(260641)   1.249157    
        149         2        86                    1_GWF-(340510)  -1.355911                        1_GWF-(260641)   1.241424    
        150         2        87                    1_GWF-(340509)   2.577616                        1_GWF-(260641)   1.256412    
        151         2        88                    1_GWF-(332429)  -5.508091                        1_GWF-(260641)   1.263562    
        152         2        89                    1_GWF-(332429)  -3.984625                        1_GWF-(260641)   1.277071    
        153         2        90                    1_GWF-(340509)   1.969813                        1_GWF-(260641)   1.284821    
        154         2        91                    1_GWF-(339886)  -1.439009                        1_GWF-(260641)   1.283590    
        155         2        92                    1_GWF-(332429)  -1.477366                        1_GWF-(260641)   1.283885    
        156         2        93                    1_GWF-(356996)  -1.806747                        1_GWF-(260641)   1.342218    
        157         2        94                    1_GWF-(356682)  -1.432825                        1_GWF-(260641)   1.377578    
        158         2        95                    1_GWF-(356997)  -2.032768                        1_GWF-(260641)   1.490492    
        159         2        96                    1_GWF-(339945)   22.03599                        1_GWF-(260641)   1.472430    
        160         2        97                    1_GWF-(356996)  -3.401783                        1_GWF-(321916)  -3.205247    
        161         2        98                    1_GWF-(356996)  -2.025828                        1_GWF-(260641)   1.720279    
        162         2        99                    1_GWF-(356997)  -2.373142                        1_GWF-(260641)   1.866525    
        163         2       100                    1_GWF-(356997)  -3.615946                        1_GWF-(260641)   2.091714    
        164         2       101                    1_GWF-(357028)  -3.617279                        1_GWF-(260641)   2.511839    
        165         2       102                    1_GWF-(357028)  -3.466630                        1_GWF-(260641)   2.916224    
        166         2       103                    1_GWF-(356997)  -6.474917                        1_GWF-(336465)   4.841511    
        167         2       104                    1_GWF-(356997)   3.517457                        1_GWF-(260641)   3.105230    
        168         2       105                    1_GWF-(358487)  -8.112750                        1_GWF-(260641)   5.059693    
        169         2       106                    1_GWF-(339945)   20.40207                        1_GWF-(260641)   4.924496    
        170         2       107                    1_GWF-(358487)  -103.7796                        1_GWF-(260641)   29.66422    
        171         2       108                    1_GWF-(358487)   93.15074                        1_GWF-(332429)   49.87520    
        172         2       109                    1_GWF-(339945)  -852.7661                        1_GWF-(332429)   23.50867    
        173         2       110                    1_GWF-(358487)  -79.01451                        1_GWF-(255710)  -19.64456    
        174         2       111                    1_GWF-(358487)   287.5362                        1_GWF-(260641)  -31.47375    
        175         2       112                    1_GWF-(358487)  -138.6760                        1_GWF-(260641)  -7.013479    
        176         2       113                    1_GWF-(358487)  -15.75581                        1_GWF-(260641)  -4.235577    
        177         2       114                    1_GWF-(358487)  -7.161091                        1_GWF-(260641)  -2.972574    
        178         2       115                    1_GWF-(356997)   3.619246                        1_GWF-(260641)  -3.161683    
        179         2       116                    1_GWF-(358487)  -5.227291                        1_GWF-(260641)  -2.234618    
        180         2       117                    1_GWF-(358487)  -2.366718                        1_GWF-(260641)  -1.812850    
        181         2       118                    1_GWF-(339945)   8.602064                        1_GWF-(260641)  -1.850302    
        182         2       119                    1_GWF-(358487)  -2.800293                        1_GWF-(321895)  -2.650129    
        183         2       120                    1_GWF-(358487)  -1.134710                        1_GWF-(260641)  -1.117131    
        184         2       121                    1_GWF-(357028)  -1.366438                        1_GWF-(260641) -0.9797483    
        185         2       122                    1_GWF-(356997)  -1.449232                        1_GWF-(260641) -0.9005900    
        186         2       123                    1_GWF-(339886)   1.173473                        1_GWF-(260641) -0.9084344    
        187         2       124                    1_GWF-(358487)  -1.138441                        1_GWF-(321916) -0.9691132    
        188         2       125                    1_GWF-(356996)   1.049640                        1_GWF-(321916)  0.7300867    
        189         2       126                    1_GWF-(339886) -0.8890415                        1_GWF-(260641) -0.7410819    
        190         2       127                    1_GWF-(358487)  -2.015902                        1_GWF-(339886)   1.100524    
        191         2       128                    1_GWF-(358487)   1.034104                        1_GWF-(260641) -0.5468469    
        192         2       129                    1_GWF-(357228) -0.4845074                        1_GWF-(260641) -0.4683568    
        193         2       130                    1_GWF-(358487)  -1.034166                        1_GWF-(260641) -0.2586151    
        194         3         1                    1_GWF-(355622)  -1968.430                         1_GWF-(84104)  -1608.280    
        195         3         2                    1_GWF-(351110)  -198.6671                         1_GWF-(84104)   162.1852    
        196         3         3                    1_GWF-(298337)  -199.9943                         1_GWF-(84104)  -185.8606    
        197         3         4                    1_GWF-(272774)  -116.5967                          1_GWF-(7885)   48.33806    
        198         3         5                      1_GWF-(2188)  -3.548542                          1_GWF-(7885)   137.2520    
        199         3         6                      1_GWF-(2171)  -3.548096                          1_GWF-(7885)   36.54729    
        200         3         7                    1_GWF-(255105)  -106.0090                        1_GWF-(255105)  -64.13995    
        201         3         8                    1_GWF-(285944)  -16.98159                        1_GWF-(331858)  -18.43891    
        202         3         9                       1_GWF-(564)  -1.735930                        1_GWF-(318043)   20.27004    
        203         3        10                    1_GWF-(255105)  -66.47815                        1_GWF-(331858)  -18.03132    
        204         3        11                    1_GWF-(255105)  -43.77763                        1_GWF-(255105)  -31.74754    
        205         3        12                    1_GWF-(224062)  -61.00753                        1_GWF-(207662)  -52.95823    
        206         3        13                    1_GWF-(255105)  -197.0686                        1_GWF-(255105)  -86.41269    
        207         3        14                    1_GWF-(224062)   257.0832                        1_GWF-(207662)   230.8992    
        208         3        15                    1_GWF-(331880)  -157.5667                        1_GWF-(331858)  -148.4004    
        209         3        16                    1_GWF-(224062)   1428.664                        1_GWF-(207662)   1274.494    
        210         3        17                    1_GWF-(356849)   930.0580                        1_GWF-(207662)  -591.2749    
        211         3        18                    1_GWF-(357108)  -213.6446                        1_GWF-(207662)  -213.4520    
        212         3        19                    1_GWF-(234100)  -63.53780                        1_GWF-(207662)  -63.06169    
        213         3        20                    1_GWF-(356849)  -36.38026                        1_GWF-(292045)  -26.07879    
        214         3        21                    1_GWF-(356850)  -13.28573                        1_GWF-(207662)   13.18717    
        215         3        22                    1_GWF-(232826)   57.91628                        1_GWF-(207662)  -46.08140    
        216         3        23                    1_GWF-(255464)  -9.615281                        1_GWF-(292045)  -10.46127    
        217         3        24                    1_GWF-(232826)   36.53241                        1_GWF-(292045)   34.74962    
        218         3        25                    1_GWF-(232826)  -15.99657                        1_GWF-(207662)  -12.77885    
        219         3        26                    1_GWF-(255105)   13.13893                        1_GWF-(207662)   7.234375    
        220         3        27                    1_GWF-(207662)   8.662289                        1_GWF-(207662)   8.777593    
        221         3        28                    1_GWF-(207662)   23.39331                        1_GWF-(292045)  -28.29686    
        222         3        29                    1_GWF-(358487)   7.162945                        1_GWF-(254903)   3.954042    
        223         3        30                    1_GWF-(232826)   10.46426                        1_GWF-(254903)  -12.00494    
        224         3        31                    1_GWF-(356971)  -1.666808                        1_GWF-(207662)  -1.666768    
        225         3        32                    1_GWF-(207662)  0.5441018                        1_GWF-(207662)  -1.571071    
        226         3        33                    1_GWF-(207662)  -9.008879                        1_GWF-(292045)  -3.549811    
        227         3        34                    1_GWF-(255464) -0.5845537                        1_GWF-(275489) -0.5890567    
        228         3        35                    1_GWF-(232826)  0.5160920                        1_GWF-(275489) -0.5867191    
        229         3        36                    1_GWF-(224062)  -3.326648                        1_GWF-(207662)  -3.181457    
        230         3        37                    1_GWF-(256858) -0.3846693                        1_GWF-(275489) -0.4719799    
        231         3        38                    1_GWF-(232826)  -1.852742                        1_GWF-(207662)   1.583566    
        232         3        39                    1_GWF-(207662)   8.354388                        1_GWF-(292045)   4.075860    
        233         3        40                    1_GWF-(255105)  -2.521752                        1_GWF-(255453) -0.6964980    
        234         3        41                    1_GWF-(255105)  0.6370858                        1_GWF-(255453)  0.6229143    
        235         3        42                    1_GWF-(207662)  -1.048641                        1_GWF-(275489) -0.6142052    
        236         3        43                    1_GWF-(350219)  -2.254268                        1_GWF-(275489)  -2.135109    
        237         3        44                    1_GWF-(350378)   1.322339                        1_GWF-(260093)   1.285899    
        238         3        45                    1_GWF-(358487) -0.1669188                        1_GWF-(316564)  0.1053530    
        239         3        46                    1_GWF-(232826)   2.278531                        1_GWF-(207662)  -2.233077    
        240         3        47                    1_GWF-(350219) -0.1078780                        1_GWF-(275489)  0.8202460E-01
        241         3        48                    1_GWF-(207662) -0.3742896                        1_GWF-(207662) -0.1072472    
        242         3        49                    1_GWF-(255105)  0.6749525E-01                    1_GWF-(275489)  0.4482261E-01
        243         3        50                    1_GWF-(207662)  0.1059735                        1_GWF-(275489)  0.3460940E-01
        244         3        51                      1_GWF-(3003) -0.8617234E-02                    1_GWF-(255453) -0.3200994E-01
        245         3        52                    1_GWF-(350219) -0.1492538E-01                    1_GWF-(275489)  0.1342476E-01
        246         3        53                    1_GWF-(255105) -0.2588533E-01                    1_GWF-(255453) -0.1921900E-01
        247         3        54                    1_GWF-(255105)  0.1986249E-01                    1_GWF-(275489)  0.9802606E-02
        248         3        55                    1_GWF-(255105) -0.2290966E-01                    1_GWF-(207662) -0.1878452E-01
        249         3        56                    1_GWF-(255105)  0.1460704E-01                    1_GWF-(275489)  0.7801864E-02
        250         3        57                    1_GWF-(255105)  0.6156381E-02                    1_GWF-(275489)  0.6356155E-02
        251         3        58                    1_GWF-(260010)  0.1514506E-01                    1_GWF-(275489)  0.1715405E-01
        252         3        59                    1_GWF-(285577) -0.1332725E-01                    1_GWF-(292045) -0.2209888E-01
        253         3        60                    1_GWF-(255464) -0.1409781E-02                    1_GWF-(275489)  0.1793264E-02
        254         3        61                    1_GWF-(207662)  0.3204639E-02                    1_GWF-(275489)  0.1464703E-02
        255         4         1                       1_GWF-(555)  -591.7146                          1_GWF-(7801)   5062.123    
        256         4         2                       1_GWF-(745)  -86.57728                          1_GWF-(7801)   1671.196    
        257         4         3                       1_GWF-(747)  -34.66874                          1_GWF-(7801)   579.5786    
        258         4         4                    1_GWF-(207141)  -279.2139                          1_GWF-(7801)   278.4303    
        259         4         5                    1_GWF-(338858)  -137.8723                         1_GWF-(16556)  -112.3557    
        260         4         6                       1_GWF-(108) -0.6813824                         1_GWF-(16556)  -87.98506    
        261         4         7                      1_GWF-(1130)   2.776814                        1_GWF-(257618)   112.3081    
        262         4         8                       1_GWF-(126)   4.141367                         1_GWF-(16556)   75.53489    
        263         4         9                    1_GWF-(153529)  -41.27200                        1_GWF-(185796)  -73.11369    
        264         4        10                    1_GWF-(313300)  -13.14331                        1_GWF-(334462)  -11.86221    
        265         4        11                    1_GWF-(338858)  -75.96876                        1_GWF-(185796)   60.40154    
        266         4        12                    1_GWF-(344272)  -33.25144                        1_GWF-(185796)   33.00035    
        267         4        13                       1_GWF-(554) -0.4070840                        1_GWF-(260641)  -6.434510    
        268         4        14                       1_GWF-(108)  0.4813468E-01                     1_GWF-(16556)  -7.031031    
        269         4        15                       1_GWF-(126) -0.3814812                        1_GWF-(260641)  -6.314396    
        270         4        16                       1_GWF-(750) -0.4288324                         1_GWF-(16556)  -16.98842    
        271         4        17                    1_GWF-(252624)  -5.706240                        1_GWF-(257618)   4.647456    
        272         4        18                       1_GWF-(107) -0.1397916E-01                    1_GWF-(260641)  -4.193259    
        273         4        19                       1_GWF-(619)  0.8602487E-01                    1_GWF-(260641)  -4.058285    
        274         4        20                        1_GWF-(80)  0.1324402E-01                    1_GWF-(185796)  -14.24614    
        275         4        21                    1_GWF-(357647)   7.226386                        1_GWF-(185796)  -3.820519    
        276         4        22                       1_GWF-(108) -0.9390111E-02                    1_GWF-(260641)  -3.410033    
        277         4        23                    1_GWF-(357647)  -109.5401                        1_GWF-(357647)  -23.70212    
        278         4        24                    1_GWF-(357647)   71.88578                        1_GWF-(292045)  -16.17934    
        279         4        25                    1_GWF-(357647)   33.99839                        1_GWF-(292045)  -13.66464    
        280         4        26                    1_GWF-(357647)   14.07661                        1_GWF-(292045)  -5.548631    
        281         4        27                    1_GWF-(357647)  -34.73371                        1_GWF-(357647)  -4.715190    
        282         4        28                       1_GWF-(536) -0.6502570E-01                    1_GWF-(357647)  -4.847279    
        283         4        29                    1_GWF-(357648)   3.060219                        1_GWF-(357647)   1.589811    
        284         4        30                    1_GWF-(357647)  -3.347524                        1_GWF-(357647)  0.8439097    
        285         4        31                    1_GWF-(357647)  -1.938506                        1_GWF-(357647)  0.4119826    
        286         4        32                    1_GWF-(357647)  -1.232167                        1_GWF-(298388)  0.2059270    
        287         4        33                    1_GWF-(357647)  -1.632678                        1_GWF-(298388)  0.3068907    
        288         4        34                    1_GWF-(357647)   7.272338                        1_GWF-(357647)   1.393823    
        289         4        35                    1_GWF-(357648) -0.6794884                        1_GWF-(329325)  0.6123603E-01
        290         4        36                    1_GWF-(357647)   1.347416                        1_GWF-(357647)  0.2647064    
        291         4        37                    1_GWF-(357648) -0.1147221                        1_GWF-(329325)  0.4013472E-01
        292         4        38                    1_GWF-(357647) -0.5065347                        1_GWF-(357647) -0.8946319E-01
        293         4        39                    1_GWF-(357647)  0.2498615                        1_GWF-(292045) -0.1100660    
        294         4        40                    1_GWF-(262212) -0.7724096E-01                    1_GWF-(292045) -0.1668196    
        295         4        41                       1_GWF-(688) -0.7193988E-03                    1_GWF-(292045)  0.9413896E-01
        296         4        42                    1_GWF-(262212)  0.4009891E-01                    1_GWF-(292045)  0.7120026E-01
        297         4        43                    1_GWF-(357648) -0.4650860E-02                    1_GWF-(292045) -0.2530695E-02
        298         4        44                     1_GWF-(24160) -0.6859564E-02                    1_GWF-(255453) -0.1839900E-01
        299         5         1                    1_GWF-(112610)   1300.374                        1_GWF-(158098)   1192.646    
        300         5         2                    1_GWF-(356124)  -647.2578                         1_GWF-(84105)   402.1407    
        301         5         3                    1_GWF-(356124)   212.8293                        1_GWF-(166433)   166.1733    
        302         5         4                     1_GWF-(80606)  -129.9923                        1_GWF-(166433)   129.0242    
        303         5         5                    1_GWF-(356124)   160.9973                        1_GWF-(207141)  -110.9467    
        304         5         6                      1_GWF-(7908)  -12.45464                        1_GWF-(166433)   46.88401    
        305         5         7                         1_GWF-(1)  0.3743529E-02                    1_GWF-(166433)   41.77646    
        306         5         8                      1_GWF-(1442)   3.692150                        1_GWF-(166433)   57.24711    
        307         5         9                    1_GWF-(335956)   236.9132                        1_GWF-(166433)   158.6009    
        308         5        10                      1_GWF-(7445)  -30.95275                        1_GWF-(207141)   874.9496    
        309         5        11                    1_GWF-(358487)   31.12383                        1_GWF-(319274)  -10.65395    
        310         5        12                    1_GWF-(326149)   44.59660                        1_GWF-(254386)  -37.14005    
        311         5        13                    1_GWF-(357714)  -14.81431                        1_GWF-(166433)   8.272279    
        312         5        14                    1_GWF-(213677)   26.50760                        1_GWF-(166433)   24.39632    
        313         5        15                    1_GWF-(357988)  -8.275517                        1_GWF-(138786)  -7.881528    
        314         5        16                      1_GWF-(1008)  0.1280000                        1_GWF-(260641)  -5.527629    
        315         5        17                    1_GWF-(356197)   5.879010                        1_GWF-(334484)  -4.838166    
        316         5        18                    1_GWF-(232826)   19.11482                        1_GWF-(334484)  -4.838182    
        317         5        19                    1_GWF-(232826)   33.65383                        1_GWF-(232826)   7.516329    
        318         5        20                    1_GWF-(321838)  -41.68974                        1_GWF-(335670)  -41.36293    
        319         5        21                    1_GWF-(232826)   206.2352                        1_GWF-(340516)   46.89088    
        320         5        22                    1_GWF-(358132)   3.214195                        1_GWF-(232826)  -2.763089    
        321         5        23                      1_GWF-(2833) -0.3433627                        1_GWF-(260641)  -2.978603    
        322         5        24                    1_GWF-(232826)   8.797716                        1_GWF-(260641)  -3.155638    
        323         5        25                    1_GWF-(232826)   71.52025                        1_GWF-(232826)   11.70481    
        324         5        26                    1_GWF-(232830)  -4.544915                        1_GWF-(260641)  -3.055116    
        325         5        27                    1_GWF-(232827)   5.336636                        1_GWF-(232826)   4.946369    
        326         5        28                    1_GWF-(232828)  -2.950361                        1_GWF-(260641)  -2.895783    
        327         5        29                    1_GWF-(232826)  -84.20124                        1_GWF-(232826)  -15.64897    
        328         5        30                    1_GWF-(232826)   26.28562                        1_GWF-(232826)  -11.03061    
        329         5        31                    1_GWF-(232830)   3.365559                        1_GWF-(260641)  -2.446175    
        330         5        32                      1_GWF-(2833) -0.3084837                        1_GWF-(260641)  -2.694988    
        331         5        33                    1_GWF-(232826)  -7.926056                        1_GWF-(260641)  -2.628202    
        332         5        34                    1_GWF-(314762)  -71.68103                        1_GWF-(284545)   36.52612    
        333         5        35                    1_GWF-(358483)   1.331846                        1_GWF-(335670)  0.9974384    
        334         5        36                    1_GWF-(314762)  -1.242104                        1_GWF-(260641)  -1.135449    
        335         5        37                    1_GWF-(314762)   2.202063                        1_GWF-(335670)  -2.957999    
        336         5        38                        1_GWF-(12)  0.9121752E-03                    1_GWF-(335670)  0.7762186    
        337         5        39                    1_GWF-(232826)   2.697523                        1_GWF-(222357)   1.461511    
        338         5        40                    1_GWF-(315842) -0.4083186                        1_GWF-(335670)  0.6209913    
        339         5        41                    1_GWF-(314762)  0.6245814                        1_GWF-(335670) -0.5992688    
        340         5        42                    1_GWF-(314762) -0.2358094                        1_GWF-(260641) -0.1936269    
        341         5        43                    1_GWF-(232826)   1.540423                        1_GWF-(335670) -0.8304636    
        342         5        44                    1_GWF-(232828) -0.2023330                        1_GWF-(335670)  0.5188097    
        343         5        45                    1_GWF-(314762) -0.2791969                        1_GWF-(260641) -0.2613122    
        344         5        46                    1_GWF-(350273)  0.1240884                        1_GWF-(335670) -0.1144800    
        345         5        47                    1_GWF-(350172) -0.3493559E-01                    1_GWF-(260641) -0.3434223E-01
        346         5        48                    1_GWF-(255005) -0.4835213E-01                    1_GWF-(260641) -0.4794909E-01
        347         5        49                    1_GWF-(232826)  0.5161226E-01                    1_GWF-(335670) -0.5840899E-01
        348         5        50                    1_GWF-(232826) -0.5487508E-01                    1_GWF-(260641) -0.4619910E-01
        349         5        51                      1_GWF-(2568) -0.2070399E-02                    1_GWF-(260641) -0.4918691E-01
        350         5        52                    1_GWF-(255005) -0.5717691E-01                    1_GWF-(260641) -0.6539488E-01
        351         5        53                    1_GWF-(350273)  0.4364158E-01                    1_GWF-(260641)  0.4154181E-01
        352         5        54                    1_GWF-(350433) -0.7238369E-02                    1_GWF-(260641) -0.7138604E-02
        353         5        55                    1_GWF-(350367)  0.1801395E-02                    1_GWF-(260641) -0.1455681E-02
        354         5        56                    1_GWF-(255005) -0.4040173E-02                    1_GWF-(325640) -0.6709787E-02
        355         6         1                     1_GWF-(80606)   1966.896                         1_GWF-(44249)   1879.818    
        356         6         2                    1_GWF-(357734)  -412.4058                        1_GWF-(333224)   306.4800    
        357         6         3                    1_GWF-(357734)  -567.0771                        1_GWF-(298700)   125.5386    
        358         6         4                    1_GWF-(357734)  -796.6271                        1_GWF-(173680)  -164.1594    
        359         6         5                    1_GWF-(357734)   193.8951                        1_GWF-(305603)  -162.2960    
        360         6         6                       1_GWF-(144)   1.402174                         1_GWF-(54283)   90.18713    
        361         6         7                    1_GWF-(358120)  -33.94840                        1_GWF-(303237)   30.84380    
        362         6         8                    1_GWF-(357734)  -42.79251                        1_GWF-(308864)  -18.39228    
        363         6         9                    1_GWF-(356395)  -17.44031                        1_GWF-(308864)  -13.00575    
        364         6        10                    1_GWF-(356395)  -22.60882                        1_GWF-(308864)  -20.15417    
        365         6        11                    1_GWF-(356222)  -7.757698                         1_GWF-(72164)  -7.432980    
        366         6        12                      1_GWF-(1651) -0.6734990                        1_GWF-(308864)  -8.631470    
        367         6        13                    1_GWF-(357734)  -6.998307                        1_GWF-(305603)   5.570881    
        368         6        14                    1_GWF-(315713)  -7.429884                        1_GWF-(334484)  -4.298443    
        369         6        15                      1_GWF-(1334) -0.1618223                        1_GWF-(334484)  -4.096921    
        370         6        16                    1_GWF-(340667)   48.54850                        1_GWF-(122830)   31.52819    
        371         6        17                    1_GWF-(358415)   3.628515                        1_GWF-(260641)  -3.594642    
        372         6        18                    1_GWF-(315713)  -15.89700                        1_GWF-(260641)  -3.477408    
        373         6        19                    1_GWF-(315713)   16.69518                        1_GWF-(260641)  -3.551987    
        374         6        20                    1_GWF-(344504)   6.080893                        1_GWF-(233723)   5.239149    
        375         6        21                    1_GWF-(315713)  -27.46685                        1_GWF-(122830)   6.025118    
        376         6        22                    1_GWF-(315713)  -55.10788                        1_GWF-(122830)   18.88245    
        377         6        23                    1_GWF-(315713)   43.05468                        1_GWF-(122830)   8.820794    
        378         6        24                    1_GWF-(315713)   91.16681                        1_GWF-(122830)  -12.44733    
        379         6        25                    1_GWF-(315713)  -59.49292                        1_GWF-(285516)  -1.498590    
        380         6        26                    1_GWF-(357734)   1.138078                        1_GWF-(337499) -0.9331392    
        381         6        27                    1_GWF-(315713)   10.39010                        1_GWF-(122830)  -1.825145    
        382         6        28                    1_GWF-(315713)  -6.893434                        1_GWF-(260641)  -1.018938    
        383         6        29                    1_GWF-(315713)   4.430941                        1_GWF-(122830)  -1.248150    
        384         6        30                    1_GWF-(315713)  -4.915784                        1_GWF-(260641) -0.7120381    
        385         6        31                    1_GWF-(315713) -0.8952693                        1_GWF-(260641) -0.6894842    
        386         6        32                    1_GWF-(315713)   3.124477                        1_GWF-(260641) -0.7096325    
        387         6        33                    1_GWF-(315713)  -4.525664                        1_GWF-(260641) -0.5442934    
        388         6        34                    1_GWF-(315713)   2.936280                        1_GWF-(260641) -0.5417456    
        389         6        35                      1_GWF-(2957)  0.9629829E-01                    1_GWF-(260641) -0.4434695    
        390         6        36                    1_GWF-(350238)  0.3451273                        1_GWF-(260641) -0.2261728    
        391         6        37                    1_GWF-(315713)  -1.053354                        1_GWF-(233723) -0.1542757    
        392         6        38                    1_GWF-(315713)   1.044713                        1_GWF-(233723)  0.1644146    
        393         6        39                    1_GWF-(350238)  0.1345902                        1_GWF-(260641) -0.7339520E-01
        394         6        40                    1_GWF-(315713) -0.2114195                        1_GWF-(275489) -0.5358497E-01
        395         6        41                    1_GWF-(356395) -0.1368756                        1_GWF-(233723)  0.1206540    
        396         6        42                    1_GWF-(315713)  -1.295830                        1_GWF-(340810)  0.3047573    
        397         6        43                    1_GWF-(350238) -0.3006438E-01                    1_GWF-(275489) -0.1476694E-01
        398         6        44                    1_GWF-(315713)  0.1765914E-01                    1_GWF-(340810) -0.2119716E-01
        399         6        45                    1_GWF-(344504)  0.7574382E-02                    1_GWF-(275489) -0.5801355E-02
        400         6        46                      1_GWF-(3004)  0.1576344E-02                    1_GWF-(339974) -0.5234483E-02
        401         7         1                    1_GWF-(329585)   1728.345                        1_GWF-(337636)  -1106.226    
        402         7         2                    1_GWF-(329585)  -816.0901                        1_GWF-(154485)  -215.6099    
        403         7         3                    1_GWF-(329585)   3299.487                        1_GWF-(154858)   682.7793    
        404         7         4                    1_GWF-(357716)   195.8567                        1_GWF-(154485)   105.7202    
        405         7         5                    1_GWF-(355895)  -682.8236                        1_GWF-(154485)   646.6694    
        406         7         6                    1_GWF-(356407)   295.8562                        1_GWF-(232951)  -197.2916    
        407         7         7                    1_GWF-(329585)   3444.616                        1_GWF-(232951)   684.3106    
        408         7         8                    1_GWF-(357752)  -55.35123                        1_GWF-(154485)   43.31895    
        409         7         9                    1_GWF-(232952)  -121.2998                        1_GWF-(232951)  -96.78891    
        410         7        10                    1_GWF-(329585)   45.70158                        1_GWF-(337636)   22.67320    
        411         7        11                    1_GWF-(329585)   111.6081                        1_GWF-(285516)  -15.95035    
        412         7        12                    1_GWF-(329585)  -100.8941                        1_GWF-(232951)  -18.89726    
        413         7        13                    1_GWF-(355895)   16.06854                        1_GWF-(273290)  -9.935455    
        414         7        14                    1_GWF-(329585)   37.40159                        1_GWF-(273290)  -8.993189    
        415         7        15                    1_GWF-(356407)   9.256274                        1_GWF-(273290)  -7.243571    
        416         7        16                    1_GWF-(329585)   98.27810                        1_GWF-(224062)  -11.89121    
        417         7        17                    1_GWF-(329585)   21.71900                        1_GWF-(273290)  -3.986772    
        418         7        18                    1_GWF-(329585)   30.12969                        1_GWF-(197019)  -16.40761    
        419         7        19                    1_GWF-(355895)   5.327701                        1_GWF-(224062)  -3.566992    
        420         7        20                    1_GWF-(355895)   3.555405                        1_GWF-(334462)  -3.436162    
        421         7        21                    1_GWF-(315726)  -4.269832                        1_GWF-(334462)  -3.401574    
        422         7        22                    1_GWF-(315726)   8.397961                        1_GWF-(334462)  -3.384837    
        423         7        23                    1_GWF-(315726)   190.4274                        1_GWF-(315726)   13.40179    
        424         7        24                    1_GWF-(315726)  -522.2003                        1_GWF-(315726)  -22.24152    
        425         7        25                    1_GWF-(315726)   381.3382                        1_GWF-(315726)   3.787431    
        426         7        26                    1_GWF-(315726)  -86.64979                        1_GWF-(334462)  -4.830905    
        427         7        27                    1_GWF-(315726)  -154.0723                        1_GWF-(315726)  -12.64460    
        428         7        28                    1_GWF-(315726)   180.7961                        1_GWF-(260641)  -2.957775    
        429         7        29                    1_GWF-(315726)   26.33077                        1_GWF-(260641)  -2.642857    
        430         7        30                    1_GWF-(350387)  -11.89296                        1_GWF-(334462)  -9.110460    
        431         7        31                    1_GWF-(315726)   457.8418                        1_GWF-(315726)   28.99269    
        432         7        32                    1_GWF-(329585)   7.503820                        1_GWF-(334462)  -6.152942    
        433         7        33                    1_GWF-(315726)   142.1318                        1_GWF-(315726)   8.518450    
        434         7        34                    1_GWF-(315726)  -34.22136                        1_GWF-(334462)  -8.067721    
        435         7        35                    1_GWF-(358232)  0.7934252                        1_GWF-(334462)  0.7813882    
        436         7        36                    1_GWF-(315726)   98.45341                        1_GWF-(315726)   6.951170    
        437         7        37                    1_GWF-(315726)  -106.8659                        1_GWF-(334462)   2.685629    
        438         7        38                    1_GWF-(315726)   4.361524                        1_GWF-(334462)   2.443203    
        439         7        39                    1_GWF-(315726)  -5.114479                        1_GWF-(334462)   3.102779    
        440         7        40                    1_GWF-(350555)  -1.995016                        1_GWF-(260641)  -1.761106    
        441         7        41                    1_GWF-(351894)  0.3026048                        1_GWF-(334462)  0.3015961    
        442         7        42                    1_GWF-(315726)  -1.608557                        1_GWF-(334462)  0.2991781    
        443         7        43                    1_GWF-(344284) -0.2574964                        1_GWF-(315726) -0.2566747    
        444         7        44                    1_GWF-(315726)   4.427532                        1_GWF-(334462)  0.1800047    
        445         7        45                     1_GWF-(10626) -0.1929209E-01                    1_GWF-(334462)  0.1683376    
        446         7        46                    1_GWF-(315726)  -5.374017                        1_GWF-(315726) -0.3163388    
        447         7        47                    1_GWF-(315726)  -8.033324                        1_GWF-(315726) -0.8644427    
        448         7        48                    1_GWF-(315726)   14.05676                        1_GWF-(312475) -0.3330471    
        449         7        49                    1_GWF-(315726)  -5.584050                        1_GWF-(315726) -0.2860671    
        450         7        50                    1_GWF-(350387) -0.7264476                        1_GWF-(315726)  0.4923519    
        451         7        51                    1_GWF-(351001)  0.4384575E-01                    1_GWF-(260641) -0.4360220E-01
        452         7        52                    1_GWF-(350477)  0.6141689E-01                    1_GWF-(334462)  0.5213367E-01
        453         7        53                    1_GWF-(315726) -0.1922605                        1_GWF-(334462)  0.4141275E-01
        454         7        54                    1_GWF-(315726) -0.1304798                        1_GWF-(334462)  0.4389011E-01
        455         7        55                    1_GWF-(344284) -0.3972460E-01                    1_GWF-(334462)  0.2532624E-01
        456         7        56                    1_GWF-(315726)   1.614012                        1_GWF-(315726)  0.8795977E-01
        457         7        57                    1_GWF-(315726)  -1.442843                        1_GWF-(334462)  0.2511151E-01
        458         7        58                    1_GWF-(315726)  0.2514437                        1_GWF-(334462)  0.2547863E-01
        459         7        59                    1_GWF-(315726) -0.9658807                        1_GWF-(315726) -0.5926182E-01
        460         7        60                    1_GWF-(315726)  0.7513817                        1_GWF-(334462)  0.2109647E-01
        461         7        61                    1_GWF-(315726)  0.8235787                        1_GWF-(340810)  0.1161868    
        462         7        62                    1_GWF-(315726) -0.7819817                        1_GWF-(334462)  0.1859359E-01
        463         7        63                    1_GWF-(315726) -0.3684739                        1_GWF-(329380) -0.7946228E-01
        464         7        64                    1_GWF-(344284)  0.4573068E-01                    1_GWF-(334462)  0.2203824E-01
        465         7        65                    1_GWF-(315726) -0.1702812                        1_GWF-(334462)  0.2919555E-01
        466         7        66                    1_GWF-(315726)  0.1004678                        1_GWF-(334462)  0.4812631E-01
        467         7        67                    1_GWF-(315726)   1.049503                        1_GWF-(314088) -0.7389084E-01
        468         7        68                    1_GWF-(315726)  -1.209887                        1_GWF-(334462)  0.5916041E-01
        469         7        69                    1_GWF-(350477) -0.4725185E-01                    1_GWF-(329380)  0.3552423E-01
        470         7        70                    1_GWF-(315726)  0.2067217                        1_GWF-(334462) -0.2098708E-01
        471         7        71                    1_GWF-(350387)  0.1194929E-01                    1_GWF-(314088) -0.1018085E-01
        472         7        72                    1_GWF-(315726) -0.3529991E-01                    1_GWF-(320921) -0.2272495E-01
        473         7        73                    1_GWF-(350544)  0.5194415E-02                    1_GWF-(329380) -0.3781589E-02
        474         7        74                    1_GWF-(350387)  0.1705222E-02                    1_GWF-(334462) -0.9330548E-03
        475         7        75                    1_GWF-(315726)  0.7300531E-02                    1_GWF-(334462) -0.9244932E-03
        476         8         1                    1_GWF-(356126)   2908.362                        1_GWF-(196908)  -916.6213    
        477         8         2                    1_GWF-(356126)  -729.0843                         1_GWF-(66486)   206.9856    
        478         8         3                    1_GWF-(356126)  -231.5533                        1_GWF-(285380)   129.7809    
        479         8         4                    1_GWF-(295405)  -109.1638                        1_GWF-(285380)   94.18449    
        480         8         5                    1_GWF-(354042)  -66.47908                        1_GWF-(285380)   66.23815    
        481         8         6                    1_GWF-(354042)  -135.8758                         1_GWF-(66486)  -46.56348    
        482         8         7                    1_GWF-(356126)   42.12646                        1_GWF-(212152)  -38.15483    
        483         8         8                    1_GWF-(354042)  -44.87425                        1_GWF-(142680)   20.89082    
        484         8         9                    1_GWF-(224062)  -18.90534                        1_GWF-(173049)   12.53144    
        485         8        10                    1_GWF-(333833)  -19.10491                        1_GWF-(212152)  -17.86388    
        486         8        11                    1_GWF-(318648)   13.20306                        1_GWF-(173049)   9.623627    
        487         8        12                    1_GWF-(353225)  -11.49540                        1_GWF-(333225)   10.50070    
        488         8        13                    1_GWF-(318648)  -6.707010                        1_GWF-(114583)   5.849924    
        489         8        14                    1_GWF-(354244)  -4.933653                        1_GWF-(302918)  -4.271940    
        490         8        15                    1_GWF-(322521)   12.54828                        1_GWF-(212152)   12.00080    
        491         8        16                    1_GWF-(327791)  -5.328287                        1_GWF-(256877)  -3.118193    
        492         8        17                    1_GWF-(311537)   2.666298                        1_GWF-(332938)  -2.705194    
        493         8        18                    1_GWF-(212152)  -4.512328                        1_GWF-(332938)  -2.507752    
        494         8        19                    1_GWF-(224062)   4.351579                        1_GWF-(212152)   3.689671    
        495         8        20                    1_GWF-(318648)  -3.454879                        1_GWF-(334484)  -1.960321    
        496         8        21                    1_GWF-(351979)  -3.360077                        1_GWF-(114583)  -2.834568    
        497         8        22                    1_GWF-(352759)   1.868187                        1_GWF-(315726)  -1.807460    
        498         8        23                    1_GWF-(322437)   6.668133                        1_GWF-(260641)  -1.586102    
        499         8        24                    1_GWF-(322437)  -4.080423                        1_GWF-(260641)  -1.517148    
        500         8        25                    1_GWF-(315726)   10.22564                        1_GWF-(260641)  -1.604809    
        501         8        26                    1_GWF-(315726)  -12.61588                        1_GWF-(315726)  -1.640610    
        502         8        27                    1_GWF-(322437)   3.034566                        1_GWF-(260641)  -1.133161    
        503         8        28                    1_GWF-(315726)  -14.81160                        1_GWF-(269403)  -3.023956    
        504         8        29                    1_GWF-(322437)  -1.531244                        1_GWF-(260641) -0.8863469    
        505         8        30                    1_GWF-(315726)   5.533278                        1_GWF-(260641) -0.7724427    
        506         8        31                    1_GWF-(315726)  -2.466136                        1_GWF-(260641) -0.7741079    
        507         8        32                    1_GWF-(349128)  0.4418453                        1_GWF-(260641) -0.4413001    
        508         8        33                    1_GWF-(315726)   1.579713                        1_GWF-(275489) -0.3693583    
        509         8        34                    1_GWF-(315726)   6.863841                        1_GWF-(269403)  0.9498352    
        510         8        35                    1_GWF-(322437)  0.9361458                        1_GWF-(302918)  0.2545803    
        511         8        36                    1_GWF-(322437) -0.3045332                        1_GWF-(302918)  0.2749410    
        512         8        37                    1_GWF-(315726)  -2.929820                        1_GWF-(315726) -0.4711255    
        513         8        38                    1_GWF-(322437)  0.6787606                        1_GWF-(302918)  0.2678124    
        514         8        39                    1_GWF-(315726)   2.999839                        1_GWF-(315726)  0.3549775    
        515         8        40                    1_GWF-(315726)   8.199298                        1_GWF-(315726)   1.189726    
        516         8        41                    1_GWF-(315726)  -11.96196                        1_GWF-(302918)  0.1821060    
        517         8        42                    1_GWF-(315726)  0.4286888                        1_GWF-(325869)  0.4039443    
        518         8        43                    1_GWF-(224062)  0.1692898                        1_GWF-(302918)  0.1696729    
        519         8        44                    1_GWF-(315726)   1.105819                        1_GWF-(302918)  0.1607632    
        520         8        45                    1_GWF-(315726) -0.6947727                        1_GWF-(302918)  0.1532915    
        521         8        46                    1_GWF-(315726)   2.221987                        1_GWF-(315726)  0.2951057    
        522         8        47                    1_GWF-(315726)  -1.712956                        1_GWF-(302918)  0.1403262    
        523         8        48                    1_GWF-(315726)  -1.556485                        1_GWF-(302918)  0.1401670    
        524         8        49                    1_GWF-(315726)   2.213383                        1_GWF-(212152) -0.2950897    
        525         8        50                    1_GWF-(315726)  -2.975588                        1_GWF-(212152) -0.8982876    
        526         8        51                    1_GWF-(344271)  0.2623365                        1_GWF-(212152) -0.2116666    
        527         8        52                    1_GWF-(350466)  0.8555177E-01                    1_GWF-(325869) -0.7166317E-01
        528         8        53                    1_GWF-(349710) -0.1140601E-01                    1_GWF-(334462)  0.1140322E-01
        529         8        54                    1_GWF-(212152) -0.1865572E-01                    1_GWF-(334462)  0.1263287E-01
        530         8        55                    1_GWF-(344271)  0.4058179E-01                    1_GWF-(334462)  0.3111588E-01
        531         8        56                    1_GWF-(350466)  0.2348718E-01                    1_GWF-(302918) -0.1887746E-01
        532         8        57                    1_GWF-(229127) -0.8778953E-01                    1_GWF-(325869) -0.4546685    
        533         8        58                    1_GWF-(315726) -0.1532206                        1_GWF-(314088) -0.1415415    
        534         8        59                    1_GWF-(315726) -0.8167837E-01                    1_GWF-(302918) -0.4464783E-01
        535         8        60                    1_GWF-(212153)  0.4309039E-01                    1_GWF-(314088) -0.1638199    
        536         8        61                    1_GWF-(313594)   1.189542                        1_GWF-(314088)  -3.558520    
        537         8        62                    1_GWF-(358487) -0.1221756                        1_GWF-(302918) -0.4221093E-01
        538         8        63                    1_GWF-(344271)  0.7959528E-01                    1_GWF-(325869)  0.5156353E-01
        539         8        64                    1_GWF-(212152)  0.4277396E-01                    1_GWF-(314088) -0.1405255    
        540         8        65                    1_GWF-(322437)  0.2633563E-01                    1_GWF-(329380) -0.1607396E-01
        541         8        66                    1_GWF-(358239) -0.7167692E-03                    1_GWF-(325869) -0.7061059E-03
        542         8        67                      1_GWF-(1388)  0.1726423E-04                    1_GWF-(334462)  0.3229891E-03
        543         9         1                    1_GWF-(329585)   2558.780                        1_GWF-(290156)   1564.179    
        544         9         2                    1_GWF-(329585)  -426.8936                        1_GWF-(336873)   226.1676    
        545         9         3                    1_GWF-(357766)  -112.1369                        1_GWF-(336873)   109.2300    
        546         9         4                    1_GWF-(357768)  -52.27791                        1_GWF-(336873)   43.29521    
        547         9         5                    1_GWF-(357734)  -64.49486                         1_GWF-(54283)  -43.32998    
        548         9         6                    1_GWF-(356421)  -51.43415                         1_GWF-(54283)  -40.04163    
        549         9         7                     1_GWF-(40964)  -17.97041                         1_GWF-(54283)  -43.26214    
        550         9         8                    1_GWF-(356422)   742.4116                         1_GWF-(54283)  -231.5686    
        551         9         9                    1_GWF-(358487)   28.18007                        1_GWF-(138787)  -17.13487    
        552         9        10                    1_GWF-(356422)   33.27107                        1_GWF-(207662)  -32.40400    
        553         9        11                    1_GWF-(356422)   9.768295                        1_GWF-(138787)  -6.115826    
        554         9        12                    1_GWF-(355881)   8.587935                        1_GWF-(334462)  -5.950844    
        555         9        13                    1_GWF-(224062)   48.35731                        1_GWF-(207662)   20.31101    
        556         9        14                    1_GWF-(356503)   6.118196                        1_GWF-(334462)  -5.984727    
        557         9        15                    1_GWF-(355881)  -19.88260                        1_GWF-(207662)  -19.08195    
        558         9        16                    1_GWF-(224062)   36.18741                        1_GWF-(207662)  -6.124559    
        559         9        17                    1_GWF-(224062)   23.11953                        1_GWF-(334462)  -5.288830    
        560         9        18                    1_GWF-(224062)  -33.78652                        1_GWF-(207662)  -9.889509    
        561         9        19                    1_GWF-(224062)   20.34226                        1_GWF-(334462)  -4.906445    
[...]
       4306       132         1                    1_GWF-(357820) -0.6023140E-01                    1_GWF-(138787) -0.3047872E-02
       4307       132         2                    1_GWF-(256889) -0.4751158E-02                     1_GWF-(12049) -0.1447422E-02
       4308       133         1                    1_GWF-(357820) -0.5816534E-01                    1_GWF-(138787) -0.3025015E-02
       4309       133         2                    1_GWF-(256889) -0.4377929E-02                     1_GWF-(12049) -0.1483887E-02
       4310       134         1                    1_GWF-(357820) -0.5616653E-01                    1_GWF-(138787) -0.3002002E-02
       4311       134         2                    1_GWF-(256889) -0.4010431E-02                     1_GWF-(12049) -0.1517666E-02
       4312       135         1                    1_GWF-(357820) -0.5422563E-01                    1_GWF-(138787) -0.2978284E-02
       4313       135         2                    1_GWF-(256889) -0.3650648E-02                     1_GWF-(12049) -0.1549063E-02
       4314       136         1                    1_GWF-(357820) -0.5233838E-01                    1_GWF-(138787) -0.2954068E-02
       4315       136         2                    1_GWF-(256889) -0.3298867E-02                     1_GWF-(12049) -0.1577976E-02
       4316       137         1                    1_GWF-(357820) -0.5050277E-01                    1_GWF-(138787) -0.2929462E-02
       4317       137         2                    1_GWF-(256889) -0.2949544E-02                     1_GWF-(12049) -0.1604975E-02
       4318       138         1                    1_GWF-(357820) -0.4871782E-01                    1_GWF-(138787) -0.2904427E-02
       4319       138         2                    1_GWF-(297814) -0.1706117E-02                     1_GWF-(12049) -0.1629975E-02
       4320       139         1                    1_GWF-(357820) -0.4698293E-01                    1_GWF-(138787) -0.2878988E-02
       4321       139         2                    1_GWF-(297814) -0.1936958E-02                     1_GWF-(12049) -0.1653105E-02
       4322       140         1                    1_GWF-(357820) -0.4529760E-01                    1_GWF-(138787) -0.2853184E-02
       4323       140         2                    1_GWF-(297814) -0.2144459E-02                     1_GWF-(12049) -0.1674493E-02
       4324       141         1                    1_GWF-(357820) -0.4366135E-01                    1_GWF-(138787) -0.2827048E-02
       4325       141         2                    1_GWF-(321895) -0.1706363E-02                     1_GWF-(12049) -0.1694257E-02
       4326       142         1                    1_GWF-(357820) -0.4207366E-01                    1_GWF-(138787) -0.2800620E-02
       4327       142         2                    1_GWF-(321895) -0.1787154E-02                     1_GWF-(12049) -0.1712516E-02
       4328       143         1                    1_GWF-(357820) -0.4053396E-01                    1_GWF-(138787) -0.2773942E-02
       4329       143         2                    1_GWF-(321895) -0.1854858E-02                     1_GWF-(12049) -0.1729372E-02
       4330       144         1                    1_GWF-(357820) -0.3904162E-01                    1_GWF-(138787) -0.2747043E-02
       4331       144         2                    1_GWF-(321895) -0.1910051E-02                     1_GWF-(12049) -0.1744935E-02
       4332       145         1                    1_GWF-(357820) -0.3759594E-01                    1_GWF-(138787) -0.2719950E-02
       4333       145         2                    1_GWF-(321895) -0.1953364E-02                     1_GWF-(12049) -0.1759307E-02
       4334       146         1                    1_GWF-(357820) -0.3619620E-01                    1_GWF-(138787) -0.2692688E-02
       4335       146         2                    1_GWF-(321895) -0.1985464E-02                     1_GWF-(12049) -0.1772590E-02
       4336       147         1                    1_GWF-(357820) -0.3484161E-01                    1_GWF-(138787) -0.2665284E-02
       4337       147         2                    1_GWF-(321895) -0.2007057E-02                     1_GWF-(12049) -0.1784882E-02
       4338       148         1                    1_GWF-(357820) -0.3353136E-01                    1_GWF-(138787) -0.2637766E-02
       4339       148         2                    1_GWF-(321895) -0.2018864E-02                     1_GWF-(12049) -0.1796275E-02
       4340       149         1                    1_GWF-(357820) -0.3226457E-01                    1_GWF-(138787) -0.2610156E-02
       4341       149         2                    1_GWF-(321895) -0.2021614E-02                     1_GWF-(12049) -0.1806857E-02
       4342       150         1                    1_GWF-(357820) -0.3104037E-01                    1_GWF-(138787) -0.2582474E-02
       4343       150         2                    1_GWF-(321895) -0.2016059E-02                     1_GWF-(12049) -0.1816714E-02
       4344       151         1                    1_GWF-(357820) -0.2985784E-01                    1_GWF-(138787) -0.2554737E-02
       4345       151         2                    1_GWF-(321895) -0.2002951E-02                     1_GWF-(12049) -0.1825935E-02
       4346       152         1                    1_GWF-(357820) -0.2871604E-01                    1_GWF-(138787) -0.2526958E-02
       4347       152         2                    1_GWF-(321895) -0.1983021E-02                     1_GWF-(12049) -0.1834597E-02
       4348       153         1                    1_GWF-(357820) -0.2761401E-01                    1_GWF-(138787) -0.2499153E-02
       4349       153         2                    1_GWF-(321895) -0.1956982E-02                     1_GWF-(12049) -0.1842771E-02
       4350       154         1                    1_GWF-(357820) -0.2655080E-01                    1_GWF-(138787) -0.2471339E-02
       4351       154         2                    1_GWF-(321895) -0.1925525E-02                     1_GWF-(12049) -0.1850524E-02
       4352       155         1                    1_GWF-(357820) -0.2552540E-01                    1_GWF-(138787) -0.2443530E-02
       4353       155         2                    1_GWF-(321895) -0.1889319E-02                     1_GWF-(12049) -0.1857928E-02
       4354       156         1                    1_GWF-(357820) -0.2453685E-01                    1_GWF-(138787) -0.2415736E-02
       4355       156         2                    1_GWF-(297814) -0.2840294E-02                     1_GWF-(12049) -0.1865036E-02
       4356       157         1                    1_GWF-(357820) -0.2358413E-01                    1_GWF-(138787) -0.2387972E-02
       4357       157         2                    1_GWF-(297814) -0.2775423E-02                     1_GWF-(12049) -0.1871905E-02
       4358       158         1                    1_GWF-(357820) -0.2266627E-01                    1_GWF-(138787) -0.2360326E-02
       4359       158         2                    1_GWF-(297814) -0.2705609E-02                     1_GWF-(12049) -0.1876303E-02
       4360       159         1                    1_GWF-(357820) -0.2178222E-01                    1_GWF-(138787) -0.2332655E-02
       4361       159         2                    1_GWF-(297814) -0.2630023E-02                     1_GWF-(12049) -0.1882815E-02
       4362       160         1                    1_GWF-(357820) -0.2093107E-01                    1_GWF-(138787) -0.2305052E-02
       4363       160         2                    1_GWF-(297814) -0.2550560E-02                     1_GWF-(12049) -0.1889238E-02
       4364       161         1                    1_GWF-(357820) -0.2011181E-01                    1_GWF-(138787) -0.2277524E-02
       4365       161         2                    1_GWF-(297814) -0.2468038E-02                     1_GWF-(12049) -0.1895618E-02
       4366       162         1                    1_GWF-(357820) -0.1932347E-01                    1_GWF-(138787) -0.2250077E-02
       4367       162         2                    1_GWF-(297814) -0.2383216E-02                     1_GWF-(12049) -0.1901987E-02
       4368       163         1                    1_GWF-(357820) -0.1856509E-01                    1_GWF-(138787) -0.2222727E-02
       4369       163         2                    1_GWF-(297814) -0.2296801E-02                     1_GWF-(12049) -0.1908383E-02
       4370       164         1                    1_GWF-(357820) -0.1783571E-01                    1_GWF-(138787) -0.2195485E-02
       4371       164         2                    1_GWF-(297814) -0.2209433E-02                     1_GWF-(12049) -0.1914854E-02
       4372       165         1                    1_GWF-(357820) -0.1713439E-01                    1_GWF-(138787) -0.2168353E-02
       4373       165         2                    1_GWF-(297814) -0.2121664E-02                     1_GWF-(12049) -0.1921423E-02
       4374       166         1                    1_GWF-(357820) -0.1646021E-01                    1_GWF-(138787) -0.2141339E-02
       4375       166         2                    1_GWF-(297814) -0.2033993E-02                     1_GWF-(12049) -0.1928121E-02
       4376       167         1                    1_GWF-(357820) -0.1581227E-01                    1_GWF-(138787) -0.2114449E-02
       4377       167         2                    1_GWF-(297814) -0.1946867E-02                     1_GWF-(12049) -0.1934981E-02
       4378       168         1                    1_GWF-(357820) -0.1518968E-01                    1_GWF-(138787) -0.2087685E-02
       4379       168         2                    1_GWF-(256889)  0.3502894E-02                     1_GWF-(12049) -0.1942025E-02
       4380       169         1                    1_GWF-(357820) -0.1459157E-01                    1_GWF-(138787) -0.2061078E-02
       4381       169         2                    1_GWF-(256889)  0.3562092E-02                     1_GWF-(12049) -0.1949264E-02
       4382       170         1                    1_GWF-(357820) -0.1401707E-01                    1_GWF-(138787) -0.2034581E-02
       4383       170         2                    1_GWF-(256889)  0.3614985E-02                     1_GWF-(12049) -0.1956752E-02
       4384       171         1                    1_GWF-(357820) -0.1346538E-01                    1_GWF-(138787) -0.2008217E-02
       4385       171         2                    1_GWF-(256889)  0.3662115E-02                     1_GWF-(12049) -0.1964490E-02
       4386       172         1                    1_GWF-(357820) -0.1293566E-01                    1_GWF-(138787) -0.1981990E-02
       4387       172         2                    1_GWF-(256889)  0.3703837E-02                     1_GWF-(12049) -0.1972500E-02
       4388       173         1                    1_GWF-(357820) -0.1242714E-01                    1_GWF-(138787) -0.1955903E-02
       4389       173         2                    1_GWF-(256889)  0.3740497E-02                     1_GWF-(12049) -0.1980800E-02
       4390       174         1                    1_GWF-(357820) -0.1193904E-01                    1_GWF-(138787) -0.1929956E-02
       4391       174         2                    1_GWF-(256889)  0.3772430E-02                     1_GWF-(12049) -0.1989407E-02
       4392       175         1                    1_GWF-(357820) -0.1147061E-01                    1_GWF-(138787) -0.1904154E-02
       4393       175         2                    1_GWF-(256889)  0.3799957E-02                     1_GWF-(12049) -0.1998337E-02
       4394       176         1                    1_GWF-(357820) -0.1102112E-01                    1_GWF-(138787) -0.1878499E-02
       4395       176         2                    1_GWF-(256889)  0.3823386E-02                     1_GWF-(12049) -0.2007605E-02
       4396       177         1                    1_GWF-(357820) -0.1058985E-01                    1_GWF-(138787) -0.1852991E-02
       4397       177         2                    1_GWF-(256889)  0.3843010E-02                     1_GWF-(12049) -0.2017227E-02
       4398       178         1                    1_GWF-(357820) -0.1017613E-01                    1_GWF-(138787) -0.1827634E-02
       4399       178         2                    1_GWF-(256889)  0.3859117E-02                     1_GWF-(12049) -0.2027214E-02
       4400       179         1                    1_GWF-(357820) -0.9779290E-02                    1_GWF-(138787) -0.1802430E-02
       4401       179         2                    1_GWF-(256889)  0.3871969E-02                     1_GWF-(12049) -0.2037579E-02
       4402       180         1                    1_GWF-(357820) -0.9398674E-02                    1_GWF-(138787) -0.1777380E-02
       4403       180         2                    1_GWF-(256889)  0.3881827E-02                     1_GWF-(12049) -0.2048331E-02
       4404       181         1                    1_GWF-(357820) -0.9033662E-02                    1_GWF-(138787) -0.1752486E-02
       4405       181         2                    1_GWF-(256889)  0.3888929E-02                     1_GWF-(12049) -0.2059483E-02
       4406       182         1                    1_GWF-(357820) -0.8683646E-02                    1_GWF-(138787) -0.1727750E-02
       4407       182         2                    1_GWF-(256889)  0.3893510E-02                     1_GWF-(12049) -0.2071041E-02
       4408       183         1                    1_GWF-(357820) -0.8348040E-02                    1_GWF-(138787) -0.1703175E-02
       4409       183         2                    1_GWF-(256889)  0.3895800E-02                     1_GWF-(12049) -0.2083015E-02
       4410       184         1                    1_GWF-(357820) -0.8026278E-02                    1_GWF-(138787) -0.1678760E-02
       4411       184         2                    1_GWF-(256889)  0.3896019E-02                     1_GWF-(12049) -0.2095410E-02
       4412       185         1                    1_GWF-(357820) -0.7717812E-02                    1_GWF-(138787) -0.1654509E-02
       4413       185         2                    1_GWF-(256889)  0.3894361E-02                     1_GWF-(12049) -0.2108233E-02
       4414       186         1                    1_GWF-(357820) -0.7422114E-02                    1_GWF-(138787) -0.1630423E-02
       4415       186         2                    1_GWF-(256889)  0.3891007E-02                     1_GWF-(12049) -0.2121487E-02
       4416       187         1                    1_GWF-(357820) -0.7138673E-02                    1_GWF-(138787) -0.1606504E-02
       4417       187         2                    1_GWF-(256889)  0.3886134E-02                     1_GWF-(12049) -0.2135176E-02
       4418       188         1                    1_GWF-(357820) -0.6866997E-02                    1_GWF-(138787) -0.1582753E-02
       4419       188         2                    1_GWF-(256889)  0.3879902E-02                     1_GWF-(12049) -0.2149301E-02
       4420       189         1                    1_GWF-(357820) -0.6606610E-02                    1_GWF-(138787) -0.1559173E-02
       4421       189         2                    1_GWF-(256889)  0.3872497E-02                     1_GWF-(12049) -0.2163863E-02
       4422       190         1                    1_GWF-(357820) -0.6357056E-02                    1_GWF-(138787) -0.1535764E-02
       4423       190         2                    1_GWF-(256889)  0.3864057E-02                     1_GWF-(12049) -0.2178861E-02
       4424       191         1                    1_GWF-(357820) -0.6117892E-02                    1_GWF-(138787) -0.1512529E-02
       4425       191         2                    1_GWF-(256889)  0.3854718E-02                     1_GWF-(12049) -0.2194294E-02
       4426       192         1                    1_GWF-(357820) -0.5888695E-02                    1_GWF-(138787) -0.1489470E-02
       4427       192         2                    1_GWF-(256889)  0.3844611E-02                     1_GWF-(12049) -0.2210157E-02
       4428       193         1                    1_GWF-(357820) -0.5669055E-02                    1_GWF-(138787) -0.1466589E-02
       4429       193         2                    1_GWF-(256889)  0.3833855E-02                     1_GWF-(12049) -0.2226444E-02
       4430       194         1                    1_GWF-(357820) -0.5458579E-02                    1_GWF-(138787) -0.1443887E-02
       4431       194         2                    1_GWF-(256889)  0.3822564E-02                     1_GWF-(12049) -0.2243150E-02
       4432       195         1                    1_GWF-(357820) -0.5256890E-02                    1_GWF-(138787) -0.1421367E-02
       4433       195         2                    1_GWF-(256889)  0.3810843E-02                     1_GWF-(12049) -0.2260267E-02
       4434       196         1                    1_GWF-(357820) -0.5063621E-02                    1_GWF-(138787) -0.1399031E-02
       4435       196         2                    1_GWF-(256889)  0.3798793E-02                     1_GWF-(12049) -0.2277783E-02
       4436       197         1                    1_GWF-(357820) -0.4878425E-02                    1_GWF-(138787) -0.1376881E-02
       4437       197         2                    1_GWF-(256889)  0.3786509E-02                     1_GWF-(12049) -0.2295687E-02
       4438       198         1                    1_GWF-(357820) -0.4700963E-02                    1_GWF-(138787) -0.1354918E-02
       4439       198         2                    1_GWF-(256889)  0.3774080E-02                     1_GWF-(12049) -0.2313966E-02

 UBDSV1 SAVING     FLOW-JA-FACE ON UNIT   1013 AT TIME STEP      1, STRESS PERIOD      1
 UBDSV06 SAVING              WEL IN MODEL MF6_WEBINAR      PACKAGE MF6_WEBINAR     CONNECTED TO MODEL MF6_WEBINAR      PACKAGE WEL              ON UNIT   1013 AT TIME STEP      1, STRESS PERIOD      1
 UBDSV06 SAVING              RIV IN MODEL MF6_WEBINAR      PACKAGE MF6_WEBINAR     CONNECTED TO MODEL MF6_WEBINAR      PACKAGE RIV_0            ON UNIT   1013 AT TIME STEP      1, STRESS PERIOD      1

 HEAD WILL BE SAVED ON UNIT 1014 AT END OF TIME STEP    1, STRESS PERIOD    1


  VOLUME BUDGET FOR ENTIRE MODEL AT END OF TIME STEP    1, STRESS PERIOD   1
  ---------------------------------------------------------------------------------------------------

     CUMULATIVE VOLUME      L**3       RATES FOR THIS TIME STEP      L**3/T          PACKAGE NAME    
     ------------------                 ------------------------                     ----------------

           IN:                                      IN:
           ---                                      ---
                 WEL =           0.0000                   WEL =           0.0000     WEL             
                 RIV =       81352.7341                   RIV =       81352.7341     RIV_0           

            TOTAL IN =       81352.7341              TOTAL IN =       81352.7341

          OUT:                                     OUT:
          ----                                     ----
                 WEL =        1378.0000                   WEL =        1378.0000     WEL             
                 RIV =       79977.7701                   RIV =       79977.7701     RIV_0           

           TOTAL OUT =       81355.7701             TOTAL OUT =       81355.7701

            IN - OUT =          -3.0360              IN - OUT =          -3.0360

 PERCENT DISCREPANCY =          -0.00     PERCENT DISCREPANCY =          -0.00




         TIME SUMMARY AT END OF TIME STEP    1 IN STRESS PERIOD    1
                    SECONDS     MINUTES      HOURS       DAYS        YEARS
                    -----------------------------------------------------------
   TIME STEP LENGTH  86400.      1440.0      24.000      1.0000     2.73785E-03
 STRESS PERIOD TIME  86400.      1440.0      24.000      1.0000     2.73785E-03
         TOTAL TIME  86400.      1440.0      24.000      1.0000     2.73785E-03
